/*--------------------------------*- C++ -*----------------------------------*\
  =========                 |
  \\      /  F ield         | OpenFOAM: The Open Source CFD Toolbox
   \\    /   O peration     | Website:  https://openfoam.org
    \\  /    A nd           | Version:  13
     \\/     M anipulation  |
\*---------------------------------------------------------------------------*/
FoamFile
{
    format      ascii;
    class       LagrangianScalarField;
    location    "0/Lagrangian/parcel";
    object      number;
}
// * * * * * * * * * * * * * * * * * * * * * * * * * * * * * * * * * * * * * //

dimensions      [];

internalField   uniform 1e-3;

boundaryField
{
    #includeEtc "caseDicts/setConstraintTypes"

    ".*"
    {
        type            calculated;
    }
}

sources
{
    manualInjection
    {
        type            totalNumber;
        uniformSize     surfaceArea;
        mass            1 [g];
    }
}


// ************************************************************************* //
